<configuration>

<input>
<net-file value="map.net.xml"/>
<route-files value="map.rou.xml,map1.rou.xml"/>
</input>
<time>
<begin value="0"/>
<end value="2000"/>
</time>
<output>
<tripinfo-output value="map.trip_info.xml"/>
</output>

</configuration>
