<net xmlns:xsi="http://www.w3.org/2001/XMLSchema-instance" junctionCornerDetail="5" limitTurnSpeed="5.50" version="1.6" xsi:noNamespaceSchemaLocation="http://sumo.dlr.de/xsd/net_file.xsd">

    <location convBoundary="0.00,0.00,12937.52,21198.08" netOffset="-460854.72,-671268.24" origBoundary="80.646233,6.069204,80.763125,6.264619" projParameter="+proj=utm +zone=44 +ellps=WGS84 +datum=WGS84 +units=m +no_defs" />

    <type allow="pedestrian" id="highway.bridleway" numLanes="1" oneway="1" priority="1" speed="2.78" width="2.00" />
    <type allow="bus" id="highway.bus_guideway" numLanes="1" oneway="1" priority="1" speed="27.78" />
    <type allow="bicycle" id="highway.cycleway" numLanes="1" oneway="0" priority="1" speed="8.33" width="1.00" />
    <type allow="pedestrian" id="highway.footway" numLanes="1" oneway="1" priority="1" speed="2.78" width="2.00" />
    <type allow="army" id="highway.ford" numLanes="1" oneway="0" priority="1" speed="2.78" />
    <type disallow="tram rail_urban rail rail_electric rail_fast ship" id="highway.living_street" numLanes="1" oneway="0" priority="2" speed="2.78" />
    <type allow="private emergency authority army vip passenger hov taxi bus coach delivery truck trailer motorcycle evehicle custom1 custom2" id="highway.motorway" numLanes="2" oneway="1" priority="14" speed="39.44" />
    <type allow="private emergency authority army vip passenger hov taxi bus coach delivery truck trailer motorcycle evehicle custom1 custom2" id="highway.motorway_link" numLanes="1" oneway="1" priority="9" speed="22.22" />
    <type allow="pedestrian bicycle" id="highway.path" numLanes="1" oneway="1" priority="1" speed="2.78" width="2.00" />
    <type allow="pedestrian" id="highway.pedestrian" numLanes="1" oneway="1" priority="1" speed="2.78" width="2.00" />
    <type disallow="tram rail_urban rail rail_electric rail_fast ship" id="highway.primary" numLanes="2" oneway="0" priority="12" speed="27.78" />
    <type disallow="tram rail_urban rail rail_electric rail_fast ship" id="highway.primary_link" numLanes="1" oneway="0" priority="7" speed="22.22" />
    <type allow="vip" id="highway.raceway" numLanes="2" oneway="0" priority="15" speed="83.33" />
    <type disallow="tram rail_urban rail rail_electric rail_fast ship" id="highway.residential" numLanes="1" oneway="0" priority="3" speed="13.89" />
    <type disallow="tram rail_urban rail rail_electric rail_fast ship" id="highway.secondary" numLanes="1" oneway="0" priority="11" speed="27.78" />
    <type disallow="tram rail_urban rail rail_electric rail_fast ship" id="highway.secondary_link" numLanes="1" oneway="0" priority="6" speed="22.22" />
    <type allow="pedestrian delivery bicycle" id="highway.service" numLanes="1" oneway="0" priority="1" speed="5.56" />
    <type allow="pedestrian" id="highway.stairs" numLanes="1" oneway="1" priority="1" speed="1.39" width="2.00" />
    <type allow="pedestrian" id="highway.step" numLanes="1" oneway="1" priority="1" speed="1.39" width="2.00" />
    <type allow="pedestrian" id="highway.steps" numLanes="1" oneway="1" priority="1" speed="1.39" width="2.00" />
    <type disallow="tram rail_urban rail rail_electric rail_fast ship" id="highway.tertiary" numLanes="1" oneway="0" priority="10" speed="22.22" />
    <type disallow="tram rail_urban rail rail_electric rail_fast ship" id="highway.tertiary_link" numLanes="1" oneway="0" priority="5" speed="22.22" />
    <type disallow="tram rail_urban rail rail_electric rail_fast ship" id="highway.track" numLanes="1" oneway="0" priority="1" speed="5.56" />
    <type disallow="pedestrian bicycle tram rail_urban rail rail_electric rail_fast ship" id="highway.trunk" numLanes="2" oneway="0" priority="13" speed="27.78" />
    <type disallow="pedestrian bicycle tram rail_urban rail rail_electric rail_fast ship" id="highway.trunk_link" numLanes="1" oneway="0" priority="8" speed="22.22" />
    <type disallow="tram rail_urban rail rail_electric rail_fast ship" id="highway.unclassified" numLanes="1" oneway="0" priority="4" speed="13.89" />
    <type disallow="tram rail_urban rail rail_electric rail_fast ship" id="highway.unsurfaced" numLanes="1" oneway="0" priority="1" speed="8.33" />
    <type allow="rail_fast" id="railway.highspeed" numLanes="1" oneway="1" priority="21" speed="69.44" />
    <type allow="rail_urban" id="railway.light_rail" numLanes="1" oneway="1" priority="19" speed="27.78" />
    <type allow="rail" id="railway.preserved" numLanes="1" oneway="1" priority="16" speed="27.78" />
    <type allow="rail" id="railway.rail" numLanes="1" oneway="1" priority="20" speed="44.44" />
    <type allow="rail_urban" id="railway.subway" numLanes="1" oneway="1" priority="18" speed="27.78" />
    <type allow="tram" id="railway.tram" numLanes="1" oneway="1" priority="17" speed="13.89" />

    <edge function="internal" id=":1750233247_0">
        <lane disallow="tram rail_urban rail rail_electric rail_fast ship" id=":1750233247_0_0" index="0" length="4.67" shape="9711.41,0.30 9711.97,-1.03 9712.68,-1.57 9713.54,-1.33 9714.55,-0.30" speed="3.65" />
    </edge>
    <edge function="internal" id=":1931937742_0">
        <lane disallow="tram rail_urban rail rail_electric rail_fast ship" id=":1931937742_0_0" index="0" length="13.81" shape="5712.08,9146.10 5710.97,9142.37 5709.00,9139.93 5706.15,9138.79 5702.44,9138.94" speed="7.80" />
    </edge>
    <edge function="internal" id=":1931937742_1">
        <lane disallow="bus tram rail_urban rail rail_electric rail_fast ship" id=":1931937742_1_0" index="0" length="21.24" shape="5712.08,9146.10 5709.57,9125.00" speed="15.28" />
    </edge>
    <edge function="internal" id=":1931937742_2">
        <lane disallow="bus tram rail_urban rail rail_electric rail_fast ship" id=":1931937742_2_0" index="0" length="19.54" shape="5712.08,9146.10 5712.03,9140.75 5713.74,9136.71 5717.21,9134.00 5722.43,9132.59" speed="9.20" />
    </edge>
    <edge function="internal" id=":1931937742_3">
        <lane disallow="tram rail_urban rail rail_electric rail_fast ship" id=":1931937742_3_0" index="0" length="2.66" shape="5712.08,9146.10 5712.69,9144.79 5713.42,9144.27 5713.73,9144.37" speed="3.65" />
    </edge>
    <edge function="internal" id=":1931937742_16">
        <lane disallow="tram rail_urban rail rail_electric rail_fast ship" id=":1931937742_16_0" index="0" length="2.01" shape="5713.73,9144.37 5714.27,9144.54 5715.25,9145.61" speed="3.65" />
    </edge>
    <edge function="internal" id=":1931937742_4">
        <lane disallow="tram rail_urban rail rail_electric rail_fast ship" id=":1931937742_4_0" index="0" length="11.74" shape="5723.20,9138.95 5719.40,9139.77 5716.80,9141.15 5715.42,9143.10 5715.25,9145.61" speed="7.25" />
    </edge>
    <edge function="internal" id=":1931937742_5">
        <lane disallow="tram rail_urban rail rail_electric rail_fast ship" id=":1931937742_5_0" index="0" length="20.80" shape="5723.20,9138.95 5716.46,9139.32 5710.94,9139.04 5706.36,9138.71 5702.44,9138.94" speed="13.89" />
    </edge>
    <edge function="internal" id=":1931937742_6">
        <lane disallow="bus tram rail_urban rail rail_electric rail_fast ship" id=":1931937742_6_0" index="0" length="19.63" shape="5722.82,9135.77 5717.41,9135.66 5713.40,9133.82 5710.79,9130.27 5709.57,9125.00" speed="9.20" />
    </edge>
    <edge function="internal" id=":1931937742_7">
        <lane disallow="bus tram rail_urban rail rail_electric rail_fast ship" id=":1931937742_7_0" index="0" length="2.34" shape="5722.82,9135.77 5721.53,9135.12 5721.03,9134.38" speed="3.65" />
    </edge>
    <edge function="internal" id=":1931937742_17">
        <lane disallow="bus tram rail_urban rail rail_electric rail_fast ship" id=":1931937742_17_0" index="0" length="2.34" shape="5721.03,9134.38 5721.33,9133.53 5722.43,9132.59" speed="3.65" />
    </edge>
    <edge function="internal" id=":1931937742_8">
        <lane disallow="tram rail_urban rail rail_electric rail_fast ship" id=":1931937742_8_0" index="0" length="9.03" shape="5715.95,9124.46 5716.51,9126.89 5717.71,9128.52 5719.55,9129.36 5722.04,9129.42" speed="6.43" />
    </edge>
    <edge function="internal" id=":1931937742_9">
        <lane disallow="bus tram rail_urban rail rail_electric rail_fast ship" id=":1931937742_9_0" index="0" length="21.02" shape="5712.76,9124.73 5715.25,9145.61" speed="15.28" />
    </edge>
    <edge function="internal" id=":1931937742_10">
        <lane disallow="bus tram rail_urban rail rail_electric rail_fast ship" id=":1931937742_10_0" index="0" length="5.18" shape="5712.76,9124.73 5712.51,9129.91" speed="9.69" />
    </edge>
    <edge function="internal" id=":1931937742_11">
        <lane disallow="bus tram rail_urban rail rail_electric rail_fast ship" id=":1931937742_11_0" index="0" length="2.08" shape="5712.76,9124.73 5712.06,9126.00 5711.52,9126.33" speed="3.65" />
    </edge>
    <edge function="internal" id=":1931937742_18">
        <lane disallow="bus tram rail_urban rail rail_electric rail_fast ship" id=":1931937742_18_0" index="0" length="14.41" shape="5712.51,9129.91 5712.49,9130.13 5710.69,9134.30 5707.34,9137.24 5702.44,9138.94" speed="9.69" />
    </edge>
    <edge function="internal" id=":1931937742_19">
        <lane disallow="bus tram rail_urban rail rail_electric rail_fast ship" id=":1931937742_19_0" index="0" length="2.59" shape="5711.52,9126.33 5711.30,9126.46 5710.47,9126.13 5709.57,9125.00" speed="3.65" />
    </edge>
    <edge function="internal" id=":1931937742_12">
        <lane disallow="tram rail_urban rail rail_electric rail_fast ship" id=":1931937742_12_0" index="0" length="12.57" shape="5701.84,9135.79 5704.13,9134.75 5705.65,9132.65 5706.40,9129.49 5706.38,9125.27" speed="7.86" />
    </edge>
    <edge function="internal" id=":1931937742_13">
        <lane disallow="bus tram rail_urban rail rail_electric rail_fast ship" id=":1931937742_13_0" index="0" length="20.84" shape="5701.84,9135.79 5722.43,9132.59" speed="13.89" />
    </edge>
    <edge function="internal" id=":1931937742_14">
        <lane disallow="tram rail_urban rail rail_electric rail_fast ship" id=":1931937742_14_0" index="0" length="19.10" shape="5701.84,9135.79 5707.01,9135.58 5710.97,9137.14 5713.71,9140.49 5715.25,9145.61" speed="9.08" />
    </edge>
    <edge function="internal" id=":1931937742_15">
        <lane disallow="tram rail_urban rail rail_electric rail_fast ship" id=":1931937742_15_0" index="0" length="2.57" shape="5701.84,9135.79 5703.17,9136.35 5703.71,9137.06 5703.65,9137.29" speed="3.65" />
    </edge>
    <edge function="internal" id=":1931937742_20">
        <lane disallow="tram rail_urban rail rail_electric rail_fast ship" id=":1931937742_20_0" index="0" length="2.11" shape="5703.65,9137.29 5703.47,9137.93 5702.44,9138.94" speed="3.65" />
    </edge>
    <edge function="internal" id=":1931937744_0">
        <lane disallow="tram rail_urban rail rail_electric rail_fast ship" id=":1931937744_0_0" index="0" length="11.01" shape="7679.83,9100.83 7676.87,9101.79 7674.86,9102.56 7673.00,9103.60 7670.44,9105.37" speed="19.44" />
        <lane disallow="tram rail_urban rail rail_electric rail_fast ship" id=":1931937744_0_1" index="1" length="11.01" shape="7678.85,9097.79 7675.60,9098.84 7673.41,9099.69 7671.37,9100.83 7668.57,9102.77" speed="19.44" />
    </edge>
    <edge function="internal" id=":1931937744_2">
        <lane disallow="tram rail_urban rail rail_electric rail_fast ship" id=":1931937744_2_0" index="0" length="4.98" shape="7678.85,9097.79 7675.19,9098.21 7673.98,9097.74" speed="8.69" />
    </edge>
    <edge function="internal" id=":1931937744_3">
        <lane disallow="tram rail_urban rail rail_electric rail_fast ship" id=":1931937744_3_0" index="0" length="2.34" shape="7678.85,9097.79 7677.46,9097.40 7676.83,9096.76" speed="3.65" />
    </edge>
    <edge function="internal" id=":1931937744_11">
        <lane disallow="tram rail_urban rail rail_electric rail_fast ship" id=":1931937744_11_0" index="0" length="11.23" shape="7673.98,9097.74 7671.99,9096.98 7669.24,9094.08 7666.94,9089.52" speed="8.69" />
    </edge>
    <edge function="internal" id=":1931937744_12">
        <lane disallow="tram rail_urban rail rail_electric rail_fast ship" id=":1931937744_12_0" index="0" length="2.34" shape="7676.83,9096.76 7676.97,9095.87 7677.86,9094.74" speed="3.65" />
    </edge>
    <edge function="internal" id=":1931937744_4">
        <lane disallow="tram rail_urban rail rail_electric rail_fast ship" id=":1931937744_4_0" index="0" length="8.68" shape="7669.93,9088.38 7671.08,9090.44 7672.62,9091.68 7674.55,9092.10 7676.88,9091.70" speed="6.52" />
    </edge>
    <edge function="internal" id=":1931937744_5">
        <lane disallow="tram rail_urban rail rail_electric rail_fast ship" id=":1931937744_5_0" index="0" length="15.55" shape="7669.93,9088.38 7671.36,9093.22 7671.61,9097.23 7670.68,9100.42 7668.57,9102.77" speed="9.26" />
    </edge>
    <edge function="internal" id=":1931937744_6">
        <lane disallow="tram rail_urban rail rail_electric rail_fast ship" id=":1931937744_6_0" index="0" length="4.67" shape="7669.93,9088.38 7669.61,9089.78 7669.01,9090.44 7668.12,9090.36 7666.94,9089.52" speed="2.78" />
    </edge>
    <edge function="internal" id=":1931937744_7">
        <lane disallow="tram rail_urban rail rail_electric rail_fast ship" id=":1931937744_7_0" index="0" length="9.05" shape="7664.83,9097.58 7666.49,9095.97 7667.40,9094.10 7667.55,9091.95 7666.94,9089.52" speed="7.19" />
    </edge>
    <edge function="internal" id=":1931937744_8">
        <lane disallow="tram rail_urban rail rail_electric rail_fast ship" id=":1931937744_8_0" index="0" length="13.01" shape="7664.83,9097.58 7668.11,9095.30 7670.50,9093.94 7673.07,9092.94 7676.88,9091.70" speed="19.44" />
        <lane disallow="tram rail_urban rail rail_electric rail_fast ship" id=":1931937744_8_1" index="1" length="13.01" shape="7666.70,9100.17 7669.74,9098.06 7671.96,9096.81 7674.34,9095.89 7677.86,9094.74" speed="19.44" />
    </edge>
    <edge function="internal" id=":1931937744_10">
        <lane disallow="tram rail_urban rail rail_electric rail_fast ship" id=":1931937744_10_0" index="0" length="2.34" shape="7666.70,9100.17 7668.14,9100.12 7668.94,9100.54" speed="3.65" />
    </edge>
    <edge function="internal" id=":1931937744_13">
        <lane disallow="tram rail_urban rail rail_electric rail_fast ship" id=":1931937744_13_0" index="0" length="2.34" shape="7668.94,9100.54 7669.08,9101.42 7668.57,9102.77" speed="3.65" />
    </edge>
    <edge function="internal" id=":1931937778_0">
        <lane disallow="tram rail_urban rail rail_electric rail_fast ship" id=":1931937778_0_0" index="0" length="9.90" shape="6251.58,9291.74 6248.80,9290.77 6246.48,9290.80 6244.61,9291.85 6243.20,9293.90" speed="6.73" />
    </edge>
    <edge function="internal" id=":1931937778_1">
        <lane disallow="tram rail_urban rail rail_electric rail_fast ship" id=":1931937778_1_0" index="0" length="15.58" shape="6251.58,9291.74 6237.54,9285.13" speed="19.44" />
        <lane disallow="bus tram rail_urban rail rail_electric rail_fast ship" id=":1931937778_1_1" index="1" length="15.58" shape="6252.99,9288.87 6238.84,9282.21" speed="19.44" />
    </edge>
    <edge function="internal" id=":1931937778_3">
        <lane disallow="tram rail_urban rail rail_electric rail_fast ship" id=":1931937778_3_0" index="0" length="5.53" shape="6252.99,9288.87 6249.42,9286.22 6248.99,9285.22" speed="8.40" />
    </edge>
    <edge function="internal" id=":1931937778_4">
        <lane disallow="tram rail_urban rail rail_electric rail_fast ship" id=":1931937778_4_0" index="0" length="2.34" shape="6252.99,9288.87 6252.27,9287.62 6252.26,9286.73" speed="3.65" />
    </edge>
    <edge function="internal" id=":1931937778_18">
        <lane disallow="tram rail_urban rail rail_electric rail_fast ship" id=":1931937778_18_0" index="0" length="12.38" shape="6248.99,9285.22 6247.97,9282.84 6248.65,9278.71 6251.45,9273.86" speed="8.40" />
    </edge>
    <edge function="internal" id=":1931937778_19">
        <lane disallow="tram rail_urban rail rail_electric rail_fast ship" id=":1931937778_19_0" index="0" length="2.34" shape="6252.26,9286.73 6252.97,9286.19 6254.40,9286.00" speed="3.65" />
    </edge>
    <edge function="internal" id=":1931937778_5">
        <lane disallow="tram rail_urban rail rail_electric rail_fast ship" id=":1931937778_5_0" index="0" length="9.06" shape="6254.02,9275.76 6252.82,9278.00 6252.71,9279.98 6253.71,9281.69 6255.81,9283.13" speed="6.15" />
    </edge>
    <edge function="internal" id=":1931937778_6">
        <lane disallow="tram rail_urban rail rail_electric rail_fast ship" id=":1931937778_6_0" index="0" length="21.14" shape="6254.02,9275.76 6251.37,9279.65 6248.28,9284.63 6245.36,9289.72 6243.20,9293.90" speed="5.55" />
    </edge>
    <edge function="internal" id=":1931937778_7">
        <lane disallow="bus tram rail_urban rail rail_electric rail_fast ship" id=":1931937778_7_0" index="0" length="17.94" shape="6254.02,9275.76 6250.32,9279.89 6246.55,9282.34 6242.73,9283.12 6238.84,9282.21" speed="9.73" />
    </edge>
    <edge function="internal" id=":1931937778_8">
        <lane disallow="tram rail_urban rail rail_electric rail_fast ship" id=":1931937778_8_0" index="0" length="4.67" shape="6254.02,9275.76 6252.67,9276.25 6251.78,9276.09 6251.38,9275.30 6251.45,9273.86" speed="3.65" />
    </edge>
    <edge function="internal" id=":1931937778_9">
        <lane disallow="tram rail_urban rail rail_electric rail_fast ship" id=":1931937778_9_0" index="0" length="11.28" shape="6241.45,9276.37 6244.37,9277.23 6247.01,9277.10 6249.37,9275.98 6251.45,9273.86" speed="7.82" />
    </edge>
    <edge function="internal" id=":1931937778_10">
        <lane disallow="tram rail_urban rail rail_electric rail_fast ship" id=":1931937778_10_0" index="0" length="15.82" shape="6241.45,9276.37 6255.81,9283.13" speed="19.44" />
        <lane disallow="bus tram rail_urban rail rail_electric rail_fast ship" id=":1931937778_10_1" index="1" length="15.82" shape="6240.14,9279.29 6254.40,9286.00" speed="19.44" />
    </edge>
    <edge function="internal" id=":1931937778_12">
        <lane disallow="bus tram rail_urban rail rail_electric rail_fast ship" id=":1931937778_12_0" index="0" length="5.45" shape="6240.14,9279.29 6243.39,9281.56 6244.05,9282.89" speed="8.65" />
    </edge>
    <edge function="internal" id=":1931937778_13">
        <lane disallow="bus tram rail_urban rail rail_electric rail_fast ship" id=":1931937778_13_0" index="0" length="2.34" shape="6240.14,9279.29 6240.91,9280.51 6240.95,9281.40" speed="3.65" />
    </edge>
    <edge function="internal" id=":1931937778_20">
        <lane disallow="bus tram rail_urban rail rail_electric rail_fast ship" id=":1931937778_20_0" index="0" length="11.51" shape="6244.05,9282.89 6244.98,9284.76 6244.91,9288.87 6243.20,9293.90" speed="8.65" />
    </edge>
    <edge function="internal" id=":1931937778_21">
        <lane disallow="bus tram rail_urban rail rail_electric rail_fast ship" id=":1931937778_21_0" index="0" length="2.34" shape="6240.95,9281.40 6240.26,9281.97 6238.84,9282.21" speed="3.65" />
    </edge>
    <edge function="internal" id=":1931937778_14">
        <lane disallow="tram rail_urban rail rail_electric rail_fast ship" id=":1931937778_14_0" index="0" length="9.06" shape="6240.29,9292.55 6241.01,9290.17 6240.79,9288.13 6239.63,9286.46 6237.54,9285.13" speed="6.48" />
    </edge>
    <edge function="internal" id=":1931937778_15">
        <lane disallow="tram rail_urban rail rail_electric rail_fast ship" id=":1931937778_15_0" index="0" length="21.79" shape="6240.29,9292.55 6242.51,9288.28 6245.54,9283.01 6248.75,9277.84 6251.45,9273.86" speed="5.55" />
    </edge>
    <edge function="internal" id=":1931937778_16">
        <lane disallow="tram rail_urban rail rail_electric rail_fast ship" id=":1931937778_16_0" index="0" length="17.79" shape="6240.29,9292.55 6243.09,9288.02 6246.37,9285.42 6250.14,9284.74 6254.40,9286.00" speed="8.82" />
    </edge>
    <edge function="internal" id=":1931937778_17">
        <lane disallow="tram rail_urban rail rail_electric rail_fast ship" id=":1931937778_17_0" index="0" length="4.67" shape="6240.29,9292.55 6241.52,9291.80 6242.42,9291.77 6242.98,9292.47 6243.20,9293.90" speed="2.78" />
    </edge>
    <edge function="internal" id=":1931937783_0">
        <lane disallow="tram rail_urban rail rail_electric rail_fast ship" id=":1931937783_0_0" index="0" length="14.54" shape="6450.00,9389.38 6436.94,9382.96" speed="19.44" />
        <lane disallow="tram rail_urban rail rail_electric rail_fast ship" id=":1931937783_0_1" index="1" length="14.54" shape="6451.41,9386.51 6438.36,9380.09" speed="19.44" />
    </edge>
    <edge function="internal" id=":1931937783_2">
        <lane disallow="tram rail_urban rail rail_electric rail_fast ship" id=":1931937783_2_0" index="0" length="5.75" shape="6451.41,9386.51 6447.76,9383.81 6447.28,9382.70" speed="8.37" />
    </edge>
    <edge function="internal" id=":1931937783_3">
        <lane disallow="tram rail_urban rail rail_electric rail_fast ship" id=":1931937783_3_0" index="0" length="2.34" shape="6451.41,9386.51 6450.68,9385.26 6450.68,9384.37" speed="3.65" />
    </edge>
    <edge function="internal" id=":1931937783_11">
        <lane disallow="tram rail_urban rail rail_electric rail_fast ship" id=":1931937783_11_0" index="0" length="12.34" shape="6447.28,9382.70 6446.31,9380.41 6447.07,9376.29 6450.03,9371.45" speed="8.37" />
    </edge>
    <edge function="internal" id=":1931937783_12">
        <lane disallow="tram rail_urban rail rail_electric rail_fast ship" id=":1931937783_12_0" index="0" length="2.34" shape="6450.68,9384.37 6451.39,9383.82 6452.82,9383.64" speed="3.65" />
    </edge>
    <edge function="internal" id=":1931937783_4">
        <lane disallow="tram rail_urban rail rail_electric rail_fast ship" id=":1931937783_4_0" index="0" length="9.06" shape="6452.55,9373.43 6451.28,9375.65 6451.13,9377.61 6452.12,9379.32 6454.23,9380.76" speed="6.10" />
    </edge>
    <edge function="internal" id=":1931937783_5">
        <lane disallow="tram rail_urban rail rail_electric rail_fast ship" id=":1931937783_5_0" index="0" length="16.96" shape="6452.55,9373.43 6448.77,9377.54 6445.15,9380.02 6441.67,9380.87 6438.36,9380.09" speed="9.44" />
    </edge>
    <edge function="internal" id=":1931937783_6">
        <lane disallow="tram rail_urban rail rail_electric rail_fast ship" id=":1931937783_6_0" index="0" length="4.67" shape="6452.55,9373.43 6451.18,9373.88 6450.31,9373.70 6449.92,9372.89 6450.03,9371.45" speed="2.78" />
    </edge>
    <edge function="internal" id=":1931937783_7">
        <lane disallow="tram rail_urban rail rail_electric rail_fast ship" id=":1931937783_7_0" index="0" length="10.18" shape="6441.18,9374.35 6443.52,9375.04 6445.77,9374.79 6447.94,9373.60 6450.03,9371.45" speed="7.43" />
    </edge>
    <edge function="internal" id=":1931937783_8">
        <lane disallow="tram rail_urban rail rail_electric rail_fast ship" id=":1931937783_8_0" index="0" length="14.54" shape="6441.18,9374.35 6454.23,9380.76" speed="19.44" />
        <lane disallow="tram rail_urban rail rail_electric rail_fast ship" id=":1931937783_8_1" index="1" length="14.54" shape="6439.77,9377.22 6452.82,9383.64" speed="19.44" />
    </edge>
    <edge function="internal" id=":1931937783_10">
        <lane disallow="tram rail_urban rail rail_electric rail_fast ship" id=":1931937783_10_0" index="0" length="2.34" shape="6439.77,9377.22 6440.49,9378.47 6440.50,9379.36" speed="3.65" />
    </edge>
    <edge function="internal" id=":1931937783_13">
        <lane disallow="tram rail_urban rail rail_electric rail_fast ship" id=":1931937783_13_0" index="0" length="2.34" shape="6440.50,9379.36 6439.79,9379.90 6438.36,9380.09" speed="3.65" />
    </edge>
    <edge function="internal" id=":1931937816_0">
        <lane disallow="tram rail_urban rail rail_electric rail_fast ship" id=":1931937816_0_0" index="0" length="9.07" shape="6579.80,9453.22 6577.35,9452.42 6575.41,9452.68 6573.98,9454.02 6573.05,9456.42" speed="6.06" />
    </edge>
    <edge function="internal" id=":1931937816_1">
        <lane disallow="tram rail_urban rail rail_electric rail_fast ship" id=":1931937816_1_0" index="0" length="14.59" shape="6579.80,9453.22 6566.72,9446.76" speed="19.44" />
        <lane disallow="tram rail_urban rail rail_electric rail_fast ship" id=":1931937816_1_1" index="1" length="14.59" shape="6581.22,9450.35 6568.13,9443.89" speed="19.44" />
    </edge>
    <edge function="internal" id=":1931937816_3">
        <lane disallow="tram rail_urban rail rail_electric rail_fast ship" id=":1931937816_3_0" index="0" length="2.34" shape="6581.22,9450.35 6580.50,9449.10 6580.49,9448.21" speed="3.65" />
    </edge>
    <edge function="internal" id=":1931937816_11">
        <lane disallow="tram rail_urban rail rail_electric rail_fast ship" id=":1931937816_11_0" index="0" length="2.34" shape="6580.49,9448.21 6581.21,9447.67 6582.64,9447.49" speed="3.65" />
    </edge>
    <edge function="internal" id=":1931937816_4">
        <lane disallow="tram rail_urban rail rail_electric rail_fast ship" id=":1931937816_4_0" index="0" length="14.61" shape="6570.95,9438.14 6584.06,9444.62" speed="19.44" />
        <lane disallow="tram rail_urban rail rail_electric rail_fast ship" id=":1931937816_4_1" index="1" length="14.61" shape="6569.54,9441.02 6582.64,9447.49" speed="19.44" />
    </edge>
    <edge function="internal" id=":1931937816_6">
        <lane disallow="tram rail_urban rail rail_electric rail_fast ship" id=":1931937816_6_0" index="0" length="4.66" shape="6569.54,9441.02 6572.13,9443.14 6572.66,9444.34" speed="9.55" />
    </edge>
    <edge function="internal" id=":1931937816_7">
        <lane disallow="tram rail_urban rail rail_electric rail_fast ship" id=":1931937816_7_0" index="0" length="2.34" shape="6569.54,9441.02 6570.27,9442.26 6570.27,9443.16" speed="3.65" />
    </edge>
    <edge function="internal" id=":1931937816_12">
        <lane disallow="tram rail_urban rail rail_electric rail_fast ship" id=":1931937816_12_0" index="0" length="12.35" shape="6572.66,9444.34 6573.58,9446.42 6573.89,9450.85 6573.05,9456.42" speed="9.55" />
    </edge>
    <edge function="internal" id=":1931937816_13">
        <lane disallow="tram rail_urban rail rail_electric rail_fast ship" id=":1931937816_13_0" index="0" length="2.34" shape="6570.27,9443.16 6569.56,9443.70 6568.13,9443.89" speed="3.65" />
    </edge>
    <edge function="internal" id=":1931937816_8">
        <lane disallow="tram rail_urban rail rail_electric rail_fast ship" id=":1931937816_8_0" index="0" length="10.34" shape="6569.93,9455.71 6570.30,9452.66 6569.88,9450.16 6568.69,9448.19 6566.72,9446.76" speed="7.56" />
    </edge>
    <edge function="internal" id=":1931937816_9">
        <lane disallow="tram rail_urban rail rail_electric rail_fast ship" id=":1931937816_9_0" index="0" length="18.28" shape="6569.93,9455.71 6571.84,9450.30 6574.60,9447.13 6578.20,9446.19 6582.64,9447.49" speed="8.34" />
    </edge>
    <edge function="internal" id=":1931937816_10">
        <lane disallow="tram rail_urban rail rail_electric rail_fast ship" id=":1931937816_10_0" index="0" length="4.67" shape="6569.93,9455.71 6570.98,9454.72 6571.85,9454.50 6572.54,9455.07 6573.05,9456.42" speed="3.65" />
    </edge>
    <edge function="internal" id=":1931937829_0">
        <lane disallow="tram rail_urban rail rail_electric rail_fast ship" id=":1931937829_0_0" index="0" length="7.83" shape="7640.37,9131.18 7639.08,9132.63 7638.37,9133.80 7638.06,9135.13 7637.98,9137.07" speed="8.88" />
        <lane disallow="tram rail_urban rail rail_electric rail_fast ship" id=":1931937829_0_1" index="1" length="7.83" shape="7638.06,9128.98 7636.29,9130.95 7635.31,9132.55 7634.89,9134.38 7634.78,9137.03" speed="10.31" />
    </edge>
    <edge function="internal" id=":1931937829_2">
        <lane disallow="tram rail_urban rail rail_electric rail_fast ship" id=":1931937829_2_0" index="0" length="4.46" shape="7638.06,9128.98 7635.58,9130.78 7634.23,9131.14" speed="9.45" />
    </edge>
    <edge function="internal" id=":1931937829_3">
        <lane disallow="tram rail_urban rail rail_electric rail_fast ship" id=":1931937829_3_0" index="0" length="2.34" shape="7638.06,9128.98 7636.65,9129.29 7635.79,9129.03" speed="3.65" />
    </edge>
    <edge function="internal" id=":1931937829_11">
        <lane disallow="tram rail_urban rail rail_electric rail_fast ship" id=":1931937829_11_0" index="0" length="9.66" shape="7634.23,9131.14 7632.55,9131.58 7628.95,9131.39 7624.80,9130.19" speed="9.45" />
    </edge>
    <edge function="internal" id=":1931937829_12">
        <lane disallow="tram rail_urban rail rail_electric rail_fast ship" id=":1931937829_12_0" index="0" length="2.34" shape="7635.79,9129.03 7635.49,9128.19 7635.74,9126.77" speed="3.65" />
    </edge>
    <edge function="internal" id=":1931937829_4">
        <lane disallow="tram rail_urban rail rail_electric rail_fast ship" id=":1931937829_4_0" index="0" length="8.42" shape="7625.95,9127.20 7627.78,9127.56 7629.63,9127.24 7631.52,9126.24 7633.42,9124.56" speed="7.42" />
    </edge>
    <edge function="internal" id=":1931937829_5">
        <lane disallow="tram rail_urban rail rail_electric rail_fast ship" id=":1931937829_5_0" index="0" length="14.09" shape="7625.95,9127.20 7629.84,9129.09 7632.61,9131.36 7634.26,9134.01 7634.78,9137.03" speed="9.25" />
    </edge>
    <edge function="internal" id=":1931937829_6">
        <lane disallow="tram rail_urban rail rail_electric rail_fast ship" id=":1931937829_6_0" index="0" length="4.67" shape="7625.95,9127.20 7626.78,9128.38 7626.87,9129.27 7626.21,9129.87 7624.80,9130.19" speed="2.78" />
    </edge>
    <edge function="internal" id=":1931937829_7">